LTspice 24.1.0 for Windows
Circuit: C:\Electronics\Arduino\MotorControl\LTSpiceModel.net
Start Time: Sun Sep 28 08:55:49 2025
solver = Normal
Maximum thread count: 2
tnom = 27
temp = 27
method = trap
Per .tran options, skipping operating point for transient analysis.
Total elapsed time: 0.424 seconds.

Files loaded:
C:\Electronics\Arduino\MotorControl\LTSpiceModel.net
C:\Users\laurb\AppData\Local\LTspice\lib\cmp\standard.bjt
C:\Users\laurb\AppData\Local\LTspice\lib\cmp\standard.mos
C:\Users\laurb\AppData\Local\LTspice\lib\sub\PC817.sub

